/*--------------------------------*- C++ -*----------------------------------*\
  | =========                 |                                                 |
  | \\      /  F ield         | OpenFOAM: The Open Source CFD Toolbox           |
  |  \\    /   O peration     | Version:  1.7.0                                 |
  |   \\  /    A nd           | Web:      www.OpenFOAM.com                      |
  |    \\/     M anipulation  |                                                 |
  \*---------------------------------------------------------------------------*/
FoamFile
{
  version     2.0;
  format      ascii;
  class       dictionary;
  location    "constant";
  object      wellboreProperties;
}
// * * * * * * * * * * * * * * * * * * * * * * * * * * * * * * * * * * * * * //

activateWellbores	1; 

qInjection	qInjection [0 3 -1 0 0 0 0]	1e-3;
qExtraction	qExtraction [0 3 -1 0 0 0 0]	0e-3;

// ************************************************************************* //
