/*--------------------------------*- C++ -*----------------------------------*\
| =========                 |                                                 |
| \\      /  F ield         | OpenFOAM: The Open Source CFD Toolbox           |
|  \\    /   O peration     | Version:  5.0                                   |
|   \\  /    A nd           | Web:      www.OpenFOAM.com                      |
|    \\/     M anipulation  |                                                 |
\*---------------------------------------------------------------------------*/
FoamFile
{
    version     2.0;
    format      ascii;
    class       dictionary;
    location    "system";
    object      fvSolution;
}
// * * * * * * * * * * * * * * * * * * * * * * * * * * * * * * * * * * * * * //

solvers
{
    potential
    {
        solver          PCG;
        preconditioner  DIC;
        tolerance       1e-12;
        relTol          1e-3;
    }
}

SIMPLE
{
    residualControl
    {
        potential          1e-6;
    }
}

relaxationFactors
{
    equations
    {
        potential          0.5;
    }
}

// ************************************************************************* //
