/*--------------------------------*- C++ -*----------------------------------*\
  =========                |
  \      /  F ield         | OpenFOAM: The Open Source CFD Toolbox
   \    /   O peration     | Website:  https://openfoam.org
    \  /    A nd           | Version:  7
     \/     M anipulation  |
\*---------------------------------------------------------------------------*/
FoamFile
{
  version     2.0;
  format      ascii;
  class       dictionary;
  location    "constant";
  object      transportProperties;
}
// * * * * * * * * * * * * * * * * * * * * * * * * * * * * * * * * * * * * * //

eps eps [0 0 0 0 0 0 0] 0.5;
rho rho [1 -3 0 0 0 0 0] 1000;
mu mu [1 -1 -1 0 0 0 0] 1e-03;

fixedPotentialList
(
    ( (5 3 0.5) 12)
);

// ************************************************************************* //
