/*--------------------------------*- C++ -*----------------------------------*\
  =========                |
  \      /  F ield         | OpenFOAM: The Open Source CFD Toolbox
   \    /   O peration     | Website:  https://openfoam.org
    \  /    A nd           | Version:  7
     \/     M anipulation  |
\*---------------------------------------------------------------------------*/
FoamFile
{
    version     2.0;
    format      ascii;
    class       volScalarField;
    object      p;
}
// * * * * * * * * * * * * * * * * * * * * * * * * * * * * * * * * * * * * * //

dimensions      [1 -1 -2 0 0 0 0];

internalField   uniform 0;

boundaryField
{

    x0
    {
        type fixedValue;
        value uniform 1;
    }

    x1
    {
        type fixedValue;
        value uniform 0;
    }

    y0
    {
        type darcyGradPressure;
        value uniform 0;
    }

    y1
    {
        type darcyGradPressure;
        value uniform 0;
    }

    z0
    {
        type empty;
    }

    z1
    {
        type empty;
    }

}

// ************************************************************************* //
