/*--------------------------------*- C++ -*----------------------------------*\
  =========                |
  \      /  F ield         | OpenFOAM: The Open Source CFD Toolbox
   \    /   O peration     | Website:  https://openfoam.org
    \  /    A nd           | Version:  7
     \/     M anipulation  |
\*---------------------------------------------------------------------------*/
FoamFile
{
    version     2.0;
    format      ascii;
    class       volScalarField;
    location    "0";
    object      p;
}
// * * * * * * * * * * * * * * * * * * * * * * * * * * * * * * * * * * * * * //

dimensions      [1 -1 -2 0 0 0 0];

internalField   uniform 0;

boundaryField
{
    top
    {
        type            fixedValue;
        value           uniform 0;
    }
        axis
    {
       	type            darcyGradPressure;
       	value		uniform 0;     
    }	
 
    inlet
    {
	type		darcyGradPressure;
	value		uniform 0;
    }
    frontAndBack
    {
        type            empty;
    }
}


// ************************************************************************* //
