/*--------------------------------*- C++ -*----------------------------------*\
| =========                 |                                                 |
| \\      /  F ield         | OpenFOAM: The Open Source CFD Toolbox           |
|  \\    /   O peration     | Version:  2.1.1                                 |
|   \\  /    A nd           | Web:      www.OpenFOAM.org                      |
|    \\/     M anipulation  |                                                 |
\*---------------------------------------------------------------------------*/
FoamFile
{
    version     2.0;
    format      ascii;
    class       volVectorField;
    object      Ub;
}
// * * * * * * * * * * * * * * * * * * * * * * * * * * * * * * * * * * * * * //

dimensions      [0 1 -1 0 0 0 0];

internalField   uniform (0 0 0);


boundaryField
{

    top
    {
        
	type            zeroGradient;
    }
    axis
    {
	type            fixedValue;
	value           uniform (0 0 0);
    }
      inlet
    {
	type            fixedValue;
	value           uniform (0 0 0);
    }  

    frontAndBack
    {
        type            empty;
    }





}


//************************************************* //
