/*--------------------------------*- C++ -*----------------------------------*\
  =========                |
  \      /  F ield         | OpenFOAM: The Open Source CFD Toolbox
   \    /   O peration     | Website:  https://openfoam.org
    \  /    A nd           | Version:  7
     \/     M anipulation  |
\*---------------------------------------------------------------------------*/
FoamFile
{
    version     2.0;
    format      ascii;
    class       dictionary;
    location    "system";
    object      fvSchemes;
}
// * * * * * * * * * * * * * * * * * * * * * * * * * * * * * * * * * * * * * //

ddtSchemes
{
    default         backward;
}

gradSchemes
{
    default         Gauss linear;
}

divSchemes
{
    default         Gauss vanLeer phi;
}

laplacianSchemes
{
    default         none;
    laplacian(Deff,C)  Gauss linear corrected;

}

interpolationSchemes
{
    default		linear;
}

snGradSchemes
{
    default         corrected;
}

fluxRequired
{
    default         no;
    p           ;
}

// ************************************************************************* //
