/*--------------------------------*- C++ -*----------------------------------*\
  =========                |
  \      /  F ield         | OpenFOAM: The Open Source CFD Toolbox
   \    /   O peration     | Website:  https://openfoam.org
    \  /    A nd           | Version:  7
     \/     M anipulation  |
\*---------------------------------------------------------------------------*/
FoamFile
{
    version     2.0;
    format      ascii;
    class       dictionary;
    location    "system";
    object      fvSolution;
}
// * * * * * * * * * * * * * * * * * * * * * * * * * * * * * * * * * * * * * //

solvers
{
    potential
    {
        solver          PCG;
        preconditioner  DIC;
        tolerance       1e-12;
        relTol          1e-3;
    }
}

residualControl
{
    potential          1e-8;
}

relaxationFactors
{
    equations
    {
        potential          0.5;
    }
}

// ************************************************************************* //
