/*--------------------------------*- C++ -*----------------------------------*\
  =========                 |
  \\      /  F ield         | OpenFOAM: The Open Source CFD Toolbox
   \\    /   O peration     | Website:  https://openfoam.org
    \\  /    A nd           | Version:  6
     \\/     M anipulation  |
\*---------------------------------------------------------------------------*/
FoamFile
{
  version     2.0;
  format      ascii;
  class       dictionary;
  location    "constant";
  object      transportProperties;
}
// * * * * * * * * * * * * * * * * * * * * * * * * * * * * * * * * * * * * * //

#include "../parameters.txt"

thetamin  thetamin [0 0 0 0 0 0 0] $param_thetamin;
thetamax thetamax [0 0 0 0 0 0 0] $param_thetamax;
	
phase.theta
{
  rho	rho [1 -3 0 0 0 0 0] $param_rho;
  mu	mu [1 -1 -1 0 0 0 0] $param_mu;
}

relativePermeabilityModel  VanGenuchten;

capillarityModel	VanGenuchten;

VanGenuchtenCoeffs
{   
    m	$param_m;
    alpha $param_alpha;
}

// ************************************************************************* //
