
/*--------------------------------*- C++ -*----------------------------------*\
| =========                 |                                                 |
| \\      /  F ield         | OpenFOAM: The Open Source CFD Toolbox           |
|  \\    /   O peration     | Version:  5.0                                   |
|   \\  /    A nd           | Web:      www.OpenFOAM.org                      |
|    \\/     M anipulation  |                                                 |
\*---------------------------------------------------------------------------*/
FoamFile
{
    version     2.0;
    format      ascii;
    class       dictionary;
    location    "system";
    object      setFieldsDict;
}
// * * * * * * * * * * * * * * * * * * * * * * * * * * * * * * * * * * * * * //

defaultFieldValues
(
       volScalarFieldValue Winj 0
);

regions
(
    boxToCell
    {
        box (50 -10 0) (70 10 1);
        fieldValues
            (
                volScalarFieldValue C 1
            );
    }

    boxToCell
    {
        box (-100 -100 0) (500 100 1);
        fieldValues
            (
                volScalarFieldValue alphaL 0.01
            );
    }

    boxToCell
    {
        box (50 -10 0) (70 10 1);
        fieldValues
            (
                volScalarFieldValue Winj 1
            );
    }
    
);



