/*--------------------------------*- C++ -*----------------------------------*\
  =========                |
  \      /  F ield         | OpenFOAM: The Open Source CFD Toolbox
   \    /   O peration     | Website:  https://openfoam.org
    \  /    A nd           | Version:  7
     \/     M anipulation  |
\*---------------------------------------------------------------------------*/
FoamFile
{
    version     2.0;
    format      ascii;
    class       dictionary;
    location    "system";
    object      setFieldsDict;
}
// * * * * * * * * * * * * * * * * * * * * * * * * * * * * * * * * * * * * * //

defaultFieldValues
(
	volScalarFieldValue Sb 2e-3
	volScalarFieldValue Winj 0
	volScalarFieldValue Wext 0
);

regions
(
   boxToCell
   {
     box (0 0 0) (0.1 0.5 0.1);
     fieldValues
        (
           volScalarFieldValue Sb 0.5
        );
   }
);

// ************************************************************************* //