/*--------------------------------*- C++ -*----------------------------------*\
| =========                 |                                                 |
| \\      /  F ield         | OpenFOAM: The Open Source CFD Toolbox           |
|  \\    /   O peration     | Version:  5.0                                   |
|   \\  /    A nd           | Web:      www.OpenFOAM.com                      |
|    \\/     M anipulation  |                                                 |
\*---------------------------------------------------------------------------*/
FoamFile
{
    version     2.0;
    format      ascii;
    class       dictionary;
    location    "system";
    object      controlDict;
}
// * * * * * * * * * * * * * * * * * * * * * * * * * * * * * * * * * * * * * //

application     groundwaterFoam;

startFrom       startTime;

startTime       0.0;

stopAt          endTime;

endTime         25000;

deltaT          1e-2;

writeControl    adjustableRunTime;

writeInterval   5000;

purgeWrite      0;

writeFormat     ascii;

writePrecision  6;

writeCompression uncompressed;

timeFormat      general;

timePrecision   6;

adjustTimeStep  yes;

runTimeModifiable yes;

maxDeltaT	1000;

//- for Picard time step control
// timeStepControl Picard;
// dTFactIncrease  1.2;
// dTFactDecrease  0.8;

//- for h variation time step control
timeStepControl dthetamax;
dthetamax           0.005;

// ************************************************************************* //
