/*--------------------------------*- C++ -*----------------------------------*\
  | =========                 |                                                 |
  | \\      /  F ield         | OpenFOAM: The Open Source CFD Toolbox           |
  |  \\    /   O peration     | Version:  4.1                                   |
  |   \\  /    A nd           | Web:      www.OpenFOAM.com                      |
  |    \\/     M anipulation  |                                                 |
  \*---------------------------------------------------------------------------*/
FoamFile
{
  version     2.0;
  format      ascii;
  class       dictionary;
  location    "constant";
  object      wellboreProperties;
}
// * * * * * * * * * * * * * * * * * * * * * * * * * * * * * * * * * * * * * //

activateWellbores	0;

qInjectionw	qInjectionw [0 3 -1 0 0 0 0]	0e-3;
qExtractionw	qExtractionw [0 3 -1 0 0 0 0]	0e-3;
qInjectiono	qInjectiono [0 3 -1 0 0 0 0]	0e-3;
qExtractiono	qExtractiono [0 3 -1 0 0 0 0]	0e-3;
// ************************************************************************* //
