/*--------------------------------*- C++ -*----------------------------------*\
  =========                |
  \      /  F ield         | OpenFOAM: The Open Source CFD Toolbox
   \    /   O peration     | Website:  https://openfoam.org
    \  /    A nd           | Version:  7
     \/     M anipulation  |
\*---------------------------------------------------------------------------*/
FoamFile
{
    version     2.0;
    format      ascii;
    class       dictionary;
    location    "system";
    object      controlDict;
}
// * * * * * * * * * * * * * * * * * * * * * * * * * * * * * * * * * * * * * //

application     groundwaterTransportFoam;

startFrom       startTime;

startTime       0.0;

stopAt          endTime;

endTime         50000;

deltaT          1e-2;

writeControl    adjustableRunTime;

writeInterval   5000;

purgeWrite      0;

writeFormat     ascii;

writePrecision  6;

writeCompression uncompressed;

timeFormat      general;

timePrecision   6;

adjustTimeStep  yes;

runTimeModifiable yes;

maxDeltaT	1000;

//- for tracer time step control
truncationError 0.1;
truncationError_C 0.001;
truncationError_h 0.01;

CSVoutput  true;

//eventTimeTracking true;

// ************************************************************************* //
