/*--------------------------------*- C++ -*----------------------------------*\
  =========                |
  \      /  F ield         | OpenFOAM: The Open Source CFD Toolbox
   \    /   O peration     | Website:  https://openfoam.org
    \  /    A nd           | Version:  7
     \/     M anipulation  |
\*---------------------------------------------------------------------------*/
FoamFile
{
    version     2.0;
    format      ascii;
    class       dictionary;
    location    "system";
    object      fvSchemes;
}
// * * * * * * * * * * * * * * * * * * * * * * * * * * * * * * * * * * * * * //

ddtSchemes
{
    default         backward;
    // ddt(theta,C)    backward;
    // ddt(C)          backward;
    ddt(h)          Euler;
    ddt(theta)      Euler;
}

gradSchemes
{
    default         Gauss linear;
}

divSchemes
{
    default         Gauss linear;
    div(phi,C)      Gauss upwind;
}

laplacianSchemes
{
    default         	Gauss linear corrected;;
}

interpolationSchemes
{
    default		linear;
    K			harmonic;
    pc   		linear;
    krtheta         	upwind phi;
}

snGradSchemes
{
    default         corrected;
}

fluxRequired
{
    default         no;
    p           ;
}

// ************************************************************************* //
