/*--------------------------------*- C++ -*----------------------------------*\
  =========                |
  \      /  F ield         | OpenFOAM: The Open Source CFD Toolbox
   \    /   O peration     | Website:  https://openfoam.org
    \  /    A nd           | Version:  7
     \/     M anipulation  |
\*---------------------------------------------------------------------------*/
FoamFile
{
    version     2.0;
    format      ascii;
    class       volVectorField;
    object      U;
}
// * * * * * * * * * * * * * * * * * * * * * * * * * * * * * * * * * * * * * //

dimensions      [0 1 -1 0 0 0 0];

internalField   uniform (0 0 0);

boundaryField
{

    x0
    {
        type zeroGradient;
    }

    x1
    {
        type zeroGradient;
    }

    y0
    {
        type fixedValue;
        value uniform (0. 0. 0.);
    }

    y1
    {
        type fixedValue;
        value uniform (0. 0. 0.);
    }

    z0
    {
        type empty;
    }

    z1
    {
        type empty;
    }

}

// ************************************************************************* //
