/*--------------------------------*- C++ -*----------------------------------*\
| =========                 |                                                 |
| \\      /  F ield         | OpenFOAM: The Open Source CFD Toolbox           |
|  \\    /   O peration     | Version:  3.0.0                                 |
|   \\  /    A nd           | Web:      www.OpenFOAM.org                      |
|    \\/     M anipulation  |                                                 |
\*---------------------------------------------------------------------------*/
FoamFile
{
    version     2.0;
    format      ascii;
    class       polyBoundaryMesh;
    location    "constant/polyMesh";
    object      boundary;
}
// * * * * * * * * * * * * * * * * * * * * * * * * * * * * * * * * * * * * * //

6
(
    X0
    {
        type            patch;
        nFaces          600;
        startFace       207000;
    }
    X1
    {
        type            patch;
        nFaces          600;
        startFace       207600;
    }
    Y0
    {
        type            patch;
        nFaces          1200;
        startFace       208200;
    }
    Y1
    {
        type            patch;
        nFaces          1200;
        startFace       209400;
    }
    Z0
    {
        type            patch;
        nFaces          7200;
        startFace       210600;
    }
    Z1
    {
        type            patch;
        nFaces          7200;
        startFace       217800;
    }
)

// ************************************************************************* //
