/*--------------------------------*- C++ -*----------------------------------*\
| =========                 |                                                 |
| \\      /  F ield         | OpenFOAM: The Open Source CFD Toolbox           |
|  \\    /   O peration     | Version:  5.0                                   |
|   \\  /    A nd           | Web:      www.OpenFOAM.com                      |
|    \\/     M anipulation  |                                                 |
\*---------------------------------------------------------------------------*/
FoamFile
{
    version     2.0;
    format      ascii;
    class       dictionary;
    location    "system";
    object      controlDict;
}
// * * * * * * * * * * * * * * * * * * * * * * * * * * * * * * * * * * * * * //

application     groundwaterFoam;

startFrom       latestTime;

startTime       0.0;

stopAt          endTime;

endTime         864000;//86400000;

deltaT          600;

writeControl    adjustableRunTime;

writeInterval   864000;//8640000;

purgeWrite      0;

writeFormat     ascii;

writePrecision  6;

writeCompression uncompressed;

timeFormat      general;

timePrecision   6;

adjustTimeStep  yes;

runTimeModifiable yes;

maxDeltaT	1e9;

//- for Picard time step control
// timeStepControl Picard;
// dTFactIncrease  1.1;
// dTFactDecrease  0.9;

//- for h variation time step control
timeStepControl dthetamax;
dthetamax           0.01;

// ************************************************************************* //
