/*--------------------------------*- C++ -*----------------------------------*\
  =========                |
  \      /  F ield         | OpenFOAM: The Open Source CFD Toolbox
   \    /   O peration     | Website:  https://openfoam.org
    \  /    A nd           | Version:  7
     \/     M anipulation  |
  \*---------------------------------------------------------------------------*/
FoamFile
{
  version     2.0;
  format      ascii;
  class       dictionary;
  location    "constant";
  object      transportProperties;
}
// * * * * * * * * * * * * * * * * * * * * * * * * * * * * * * * * * * * * * //

phase.theta
{
  rho	rho [1 -3 0 0 0 0 0] 	1e3;
  mu	mu [1 -1 -1 0 0 0 0]	1e-3;
}

relativePermeabilityModel  VanGenuchten;

capillarityModel	VanGenuchten;

VanGenuchtenCoeffs
{   
    thetamin	thetamin [0 0 0 0 0 0 0]	0.102;
    thetamax	thetamax [0 0 0 0 0 0 0]	0.368;
    m	0.5;
    alpha 3.35;
}

//- tracer transport properties
Dm Dm [0 2 -1 0 0 0 0] 1e-9;
eps eps [0 0 0 0 0 0 0] 0.30;

porousTransport
{
    phaseName theta;
    Kd Kd [-1 3 0 0 0 0 0] 1e-3;
    rs rs [1 -3 0 0 0 0 0] 0;
    epsTotal epsTotal [0 0 0 0 0 0 0] 0.30;
    lambda lambda [0 0 -1 0 0 0 0 ] 0;//1.1574e-6;
}

dispersionModel alphaDispersion;

alphaDispersionCoeffs
{
    tau tau [0 0 0 0 0 0 0] 2;
    alphaL alphaL [0 1 0 0 0 0 0] 0.01;
    alphaT alphaT [0 1 0 0 0 0 0] 0.002;
}

eventFileTracerSource "Cinjection.evt";

// ************************************************************************* //
