/*--------------------------------*- C++ -*----------------------------------*\
| =========                 |                                                 |
| \\      /  F ield         | OpenFOAM: The Open Source CFD Toolbox           |
|  \\    /   O peration     | Version:  1.7.0                                 |
|   \\  /    A nd           | Web:      www.OpenFOAM.com                      |
|    \\/     M anipulation  |                                                 |
\*---------------------------------------------------------------------------*/
FoamFile
{
    version     2.0;
    format      ascii;
    class       dictionary;
    location    "system";
    object      controlDict;
}
// * * * * * * * * * * * * * * * * * * * * * * * * * * * * * * * * * * * * * //

application     impesFoam;

startFrom       latestTime;

startTime       0.0;

stopAt          endTime;

endTime         2000000;

deltaT          1e-5;

writeControl    adjustableRunTime;

writeInterval   10000;

purgeWrite      0;

writeFormat     ascii;

writePrecision  6;

writeCompression uncompressed;

timeFormat      general;

timePrecision   6;

runTimeModifiable yes;

CFL            yes; // yes for CFL Coats - no for classic Courant No

maxCo		0.75;
//maxCo		0.05;

dSmax           1e-3;

maxDeltaT	100;

// ************************************************************************* //
