/*--------------------------------*- C++ -*----------------------------------*\
  =========                |
  \      /  F ield         | OpenFOAM: The Open Source CFD Toolbox
   \    /   O peration     | Website:  https://openfoam.org
    \  /    A nd           | Version:  7
     \/     M anipulation  |
  \*---------------------------------------------------------------------------*/
FoamFile
{
  version     2.0;
  format      ascii;
  class       dictionary;
  location    "constant";
  object      transportProperties;
}
// * * * * * * * * * * * * * * * * * * * * * * * * * * * * * * * * * * * * * //

Ss [0 -1 0 0 0 0 0] 0;

phase.theta
{
  rho [1 -3 0 0 0 0 0] 1e3;
  mu [1 -1 -1 0 0 0 0] 1e-3;
}

relativePermeabilityModel  VanGenuchten;

capillarityModel	VanGenuchten;

VanGenuchtenCoeffs
{
    //- "m" field in constant/porousModels
    // thetamin field in constant/porousModels
    thetamax 0.368;
    alpha 3.35;
}

// ************************************************************************* //
