/*--------------------------------*- C++ -*----------------------------------*\
  =========                |
  \      /  F ield         | OpenFOAM: The Open Source CFD Toolbox
   \    /   O peration     | Website:  https://openfoam.org
    \  /    A nd           | Version:  7
     \/     M anipulation  |
  \*---------------------------------------------------------------------------*/
FoamFile
{
  version     2.0;
  format      ascii;
  class       dictionary;
  location    "constant";
  object      transportProperties;
}
// * * * * * * * * * * * * * * * * * * * * * * * * * * * * * * * * * * * * * //

activateCapillarity	1;

eps eps [0 0 0 0 0 0 0] 0.5;

phase.a
{
  rho rho [1 -3 0 0 0 0 0]  1e0;
  mu mu [1 -1 -1 0 0 0 0] 1.76e-5;
}
	
phase.b
{
  rho rho [1 -3 0 0 0 0 0] 1e3;
  mu mu [1 -1 -1 0 0 0 0] 1e-3;
}

relativePermeabilityModel  BrooksAndCorey;

capillarityModel	BrooksAndCorey;

BrooksAndCoreyCoeffs
{
    n 3;
    pc0 1000;
    alpha 0.5;
    Sbmin 1e-3;
    Sbmax 0.999;
}

// ************************************************************************* //
