/*--------------------------------*- C++ -*----------------------------------*\
| =========                 |                                                 |
| \\      /  F ield         | OpenFOAM: The Open Source CFD Toolbox           |
|  \\    /   O peration     | Version:  5.0                                   |
|   \\  /    A nd           | Web:      www.OpenFOAM.org                      |
|    \\/     M anipulation  |                                                 |
\*---------------------------------------------------------------------------*/
FoamFile
{
  version     2.0;
  format      ascii;
  class       dictionary;
  location    "constant";
  object      transportProperties;
}
// * * * * * * * * * * * * * * * * * * * * * * * * * * * * * * * * * * * * * //
	
eps eps [0 0 0 0 0 0 0]	0.25;

Dm Dm [0 2 -1 0 0 0 0] 1e-9;

phase.a
{
    mu              mu [ 1 -1 -1 0 0 0 0 ] 1e-3;
    rho             rho [ 1 -3 0 0 0 0 0 ] 1000;
}

porousTransport
{
    phaseName a;
    Kd Kd [-1 3 0 0 0 0 0] 1e-3;
    rs rs [1 -3 0 0 0 0 0] 1000;
    epsTotal epsTotal [0 0 0 0 0 0 0] 0.30;
    lambda lambda [0 0 -1 0 0 0 0 ] 1.1574e-6; // 0.1 days^-1
}

dispersionModel alphaDispersion;

alphaDispersionCoeffs
{
    tau tau [0 0 0 0 0 0 0] 2;
    alphaL alphaL [0 1 0 0 0 0 0] 0.01;
    alphaT alphaT [0 1 0 0 0 0 0] 0.002;
}

wellboreProperties
{
    qInjection	qInjection [0 3 -1 0 0 0 0] 1e-3;
    qExtraction	qExtraction [0 3 -1 0 0 0 0] 0e-3;
    Cin Cin [1 -3 0 0 0 0 0] 1;
}

// ************************************************************************* //
