/*--------------------------------*- C++ -*----------------------------------*\
| =========                 |                                                 |
| \\      /  F ield         | OpenFOAM: The Open Source CFD Toolbox           |
|  \\    /   O peration     | Version:  5.0                                   |
|   \\  /    A nd           | Web:      www.OpenFOAM.org                      |
|    \\/     M anipulation  |                                                 |
\*---------------------------------------------------------------------------*/
FoamFile
{
    version     2.0;
    format      ascii;
    class       volScalarField;
    location    "0";
    object      K;
}
// * * * * * * * * * * * * * * * * * * * * * * * * * * * * * * * * * * * * * //

dimensions      [0 2 0 0 0 0 0];

internalField   nonuniform List<scalar> 
2000
(
69.4490e-15
84.4631e-15
21.8255e-15
25.3835e-15
47.9963e-15
31.2182e-15
51.4648e-15
61.4152e-15
35.3972e-15
27.5077e-15
31.2168e-15
69.2073e-15
42.1973e-15
45.4982e-15
82.0568e-15
80.7311e-15
68.5515e-15
85.7161e-15
52.0695e-15
93.8174e-15
59.2244e-15
700.2914e-15
571.5565e-15
544.7281e-15
991.1849e-15
542.0923e-15
796.8679e-15
845.6119e-15
660.1896e-15
783.6548e-15
622.6988e-15
522.8158e-15
680.8698e-15
824.7515e-15
964.8132e-15
896.7670e-15
.0225e-15
.6726e-15
.2551e-15
.3372e-15
.7100e-15
.9568e-15
.0422e-15
.2752e-15
.7695e-15
.2416e-15
.7637e-15
.8430e-15
.9130e-15
.1180e-15
.9831e-15
.3513e-15
.6616e-15
.4706e-15
.7887e-15
.6177e-15
.7800e-15
.9137e-15
.2325e-15
.4112e-15
.7171e-15
.2297e-15
.7668e-15
.8844e-15
.0417e-15
.8016e-15
.6857e-15
.0159e-15
.8775e-15
529.2136e-15
778.5096e-15
520.0872e-15
673.9397e-15
953.5383e-15
832.1105e-15
947.8826e-15
502.9753e-15
585.6386e-15
.4416e-15
.6536e-15
.2761e-15
.0304e-15
.9105e-15
.9574e-15
.8878e-15
.4527e-15
.1224e-15
.4641e-15
.3199e-15
.6395e-15
67.0211e-15
42.0524e-15
38.3464e-15
56.6002e-15
77.8805e-15
50.6501e-15
91.7782e-15
90.2859e-15
42.5758e-15
27.8953e-15
6.3099e-15
16.1374e-15
8.6744e-15
15.1164e-15
3.0866e-15
.0762e-15
.2619e-15
.0692e-15
.9041e-15
.2058e-15
.3042e-15
.9327e-15
.9188e-15
.3570e-15
.3152e-15
.8696e-15
.0123e-15
.7226e-15
.2729e-15
.5287e-15
.8275e-15
.7064e-15
.5368e-15
.8624e-15
.9877e-15
.1089e-15
.0369e-15
.3168e-15
.2772e-15
.3142e-15
.4577e-15
506.4576e-15
914.2116e-15
740.2499e-15
715.0742e-15
971.0854e-15
658.1536e-15
863.3879e-15
858.5419e-15
573.4941e-15
569.2402e-15
658.8336e-15
699.7136e-15
955.8577e-15
803.1951e-15
926.7200e-15
2.2441e-15
19.0388e-15
3.5093e-15
9.6796e-15
19.9598e-15
12.1975e-15
.4162e-15
.9605e-15
.3618e-15
.9645e-15
.6332e-15
.0955e-15
.3896e-15
.1998e-15
.6227e-15
.6746e-15
.5725e-15
.5963e-15
.0746e-15
.7873e-15
.8457e-15
.8244e-15
77.1346e-15
98.4422e-15
82.0812e-15
28.5411e-15
59.7589e-15
55.9697e-15
79.9790e-15
52.6073e-15
83.0558e-15
37.9451e-15
32.7750e-15
12.7695e-15
11.5362e-15
7.7834e-15
12.2706e-15
15.2745e-15
11.4654e-15
3.0922e-15
1.3686e-15
3.2000e-15
10.6408e-15
3.7252e-15
19.5597e-15
10.8196e-15
7.0385e-15
14.3336e-15
15.4552e-15
9.3025e-15
5.2957e-15
16.2453e-15
12.6088e-15
5.2760e-15
14.6139e-15
8.2675e-15
4.8304e-15
10.4948e-15
11.9683e-15
116.8898e-15
243.2404e-15
262.3387e-15
321.8745e-15
10.9079e-15
93.5420e-15
18.4748e-15
337.2431e-15
288.9694e-15
434.4256e-15
347.2262e-15
494.9615e-15
68.0861e-15
139.3731e-15
161.7475e-15
437.3103e-15
315.3680e-15
99.6358e-15
21.4535e-15
61.1832e-15
39.3165e-15
57.0100e-15
98.3070e-15
26.9684e-15
96.6634e-15
73.2690e-15
88.0294e-15
80.3244e-15
28.7976e-15
29.5932e-15
60.4534e-15
49.4237e-15
46.9188e-15
.2495e-15
.3369e-15
.6588e-15
.2659e-15
.3236e-15
.1903e-15
.1723e-15
.4486e-15
.3978e-15
.3073e-15
.2061e-15
.3003e-15
.2489e-15
.2604e-15
.7491e-15
.0351e-15
.3121e-15
.8895e-15
.4196e-15
.6034e-15
.6197e-15
.2432e-15
.3984e-15
.6329e-15
.7386e-15
.5097e-15
.3713e-15
.3622e-15
.7069e-15
.9610e-15
57.0339e-15
66.2644e-15
97.7307e-15
91.0143e-15
34.2622e-15
64.6897e-15
46.1926e-15
62.8191e-15
46.8506e-15
20.2423e-15
88.1732e-15
23.4547e-15
20.5497e-15
97.9503e-15
87.6652e-15
50.5662e-15
56.3446e-15
16.8712e-15
15.5815e-15
6.5298e-15
2.2955e-15
4.5308e-15
4.2840e-15
5.0899e-15
6.7794e-15
16.2125e-15
13.3868e-15
5.6254e-15
810.4448e-15
783.4398e-15
883.1865e-15
522.6963e-15
892.2433e-15
7.2958e-15
7.5887e-15
7.4542e-15
19.2797e-15
2.1377e-15
3.0094e-15
18.7782e-15
9.7597e-15
15.7832e-15
17.0906e-15
13.5687e-15
12.0795e-15
5.9052e-15
.2940e-15
.6096e-15
.1457e-15
.3347e-15
.5271e-15
.2770e-15
.1656e-15
.5887e-15
.6747e-15
.2534e-15
.5515e-15
.0415e-15
.5979e-15
.9089e-15
.7895e-15
.8341e-15
.5780e-15
.0839e-15
.6297e-15
.9234e-15
.0059e-15
.7689e-15
.7737e-15
.7631e-15
.0666e-15
.8021e-15
.5640e-15
.9927e-15
.4297e-15
.5498e-15
.6690e-15
.1284e-15
.9359e-15
.5957e-15
.7724e-15
.2438e-15
.2852e-15
.4298e-15
.2609e-15
.6648e-15
.7201e-15
.1343e-15
.9079e-15
.6536e-15
.7201e-15
2.3406e-15
11.7904e-15
2.8045e-15
13.9871e-15
11.8482e-15
17.2943e-15
4.5460e-15
12.7475e-15
12.7853e-15
17.0790e-15
3.3626e-15
16.7201e-15
11.3917e-15
15.1159e-15
16.0240e-15
12.3516e-15
14.4824e-15
12.0924e-15
9.4064e-15
56.9586e-15
407.6211e-15
40.1482e-15
301.1918e-15
495.3825e-15
272.9345e-15
248.2050e-15
861.7241e-15
664.3846e-15
546.1154e-15
989.0477e-15
38.1779e-15
30.0267e-15
273.0804e-15
218.5039e-15
187.0318e-15
320.5371e-15
319.2442e-15
128.6495e-15
365.2104e-15
394.8677e-15
103.4615e-15
34.6413e-15
63.6495e-15
95.8585e-15
85.3843e-15
8.5399e-15
16.7950e-15
8.7492e-15
11.7705e-15
1.7729e-15
5.3593e-15
13.8006e-15
5.4302e-15
7.2812e-15
8.0456e-15
4.6821e-15
4.2523e-15
6.8115e-15
9.4348e-15
9.7034e-15
1.2320e-15
6.0644e-15
13.0149e-15
9.2842e-15
2.9282e-15
5.0071e-15
11.4935e-15
1.2673e-15
18.7756e-15
6.1859e-15
14.1106e-15
9.2308e-15
12.3974e-15
4.0388e-15
16.9509e-15
14.8006e-15
4.9180e-15
67.1908e-15
63.1844e-15
32.4757e-15
46.4209e-15
78.3226e-15
61.0036e-15
72.1142e-15
55.9241e-15
70.3493e-15
27.9620e-15
39.7367e-15
50.2788e-15
73.2890e-15
76.0115e-15
61.4163e-15
76.8665e-15
98.0197e-15
36.7133e-15
21.5853e-15
40.1782e-15
91.2782e-15
56.2381e-15
78.0356e-15
56.8143e-15
691.6313e-15
814.7874e-15
730.7380e-15
940.5273e-15
747.6498e-15
871.7890e-15
673.3963e-15
793.7977e-15
890.5142e-15
522.4857e-15
614.8839e-15
808.2030e-15
871.3152e-15
733.1783e-15
562.8835e-15
702.7299e-15
634.0151e-15
2.1486e-15
13.4383e-15
5.4004e-15
2.2995e-15
9.3143e-15
10.0870e-15
13.3125e-15
3.1970e-15
4.8616e-15
15.0210e-15
18.5145e-15
2.5179e-15
8.5137e-15
.4925e-15
.4719e-15
.7673e-15
.9225e-15
.1542e-15
.3048e-15
.5567e-15
1.0000e-15
.9268e-15
.4542e-15
431.9146e-15
463.4601e-15
70.2635e-15
271.1288e-15
409.6455e-15
376.5088e-15
308.8911e-15
243.4264e-15
324.3710e-15
8.8469e-15
15.6940e-15
12.3964e-15
6.0012e-15
11.8869e-15
9.2268e-15
19.3390e-15
18.0660e-15
15.5720e-15
5.2013e-15
10.2847e-15
16.0394e-15
5.9476e-15
13.2597e-15
17.5080e-15
5.1756e-15
14.9077e-15
1.9086e-15
16.4131e-15
8.3743e-15
9.7576e-15
16.0815e-15
5.0968e-15
12.7432e-15
10.7760e-15
9.7009e-15
7.9105e-15
11.1605e-15
94.8545e-15
21.0160e-15
28.5194e-15
40.3677e-15
94.4294e-15
21.2262e-15
24.1436e-15
65.8123e-15
24.4119e-15
83.6468e-15
80.1432e-15
32.0189e-15
52.3742e-15
71.4552e-15
91.2386e-15
76.1884e-15
83.9352e-15
99.6259e-15
57.6971e-15
34.8187e-15
97.7604e-15
69.9300e-15
20.3330e-15
98.7044e-15
80.5628e-15
85.9358e-15
75.5073e-15
27.9370e-15
42.1017e-15
800.0503e-15
813.2996e-15
668.1563e-15
563.6469e-15
926.9298e-15
979.0616e-15
745.5859e-15
785.3846e-15
786.2292e-15
550.4670e-15
769.2834e-15
858.9748e-15
507.6710e-15
955.9443e-15
909.7429e-15
859.0861e-15
950.9583e-15
939.8402e-15
614.3140e-15
973.1805e-15
799.5247e-15
656.1693e-15
8.6362e-15
4.6200e-15
6.8628e-15
10.9698e-15
18.1747e-15
16.9460e-15
5.8405e-15
1.4950e-15
8.8954e-15
2.3157e-15
17.5657e-15
14.4395e-15
39.7346e-15
83.3501e-15
91.7669e-15
70.7475e-15
91.3040e-15
88.0922e-15
96.1643e-15
64.8311e-15
47.3840e-15
25.4258e-15
46.5610e-15
713.7254e-15
676.2387e-15
844.7753e-15
919.0479e-15
918.1106e-15
877.8388e-15
702.2164e-15
910.6199e-15
898.2864e-15
702.1514e-15
639.2467e-15
559.8434e-15
832.5289e-15
553.4047e-15
846.5935e-15
998.2412e-15
541.2038e-15
782.6042e-15
641.4489e-15
538.4890e-15
955.5171e-15
656.2830e-15
936.2197e-15
643.1645e-15
586.2642e-15
825.2511e-15
707.2778e-15
893.4979e-15
98.8129e-15
66.9354e-15
94.1936e-15
93.2995e-15
60.1107e-15
81.7893e-15
54.5707e-15
29.8913e-15
17.0612e-15
9.3564e-15
17.9144e-15
18.2627e-15
1.9556e-15
7.4573e-15
3.6823e-15
15.3961e-15
19.9294e-15
13.9088e-15
16.9573e-15
2.5676e-15
7.6018e-15
2.1193e-15
8.4878e-15
3.9792e-15
10.3039e-15
8.7875e-15
18.1408e-15
2.0290e-15
9.8913e-15
18.7143e-15
2.7136e-15
12.1242e-15
18.5563e-15
.0334e-15
.2506e-15
.2373e-15
.0347e-15
.2605e-15
.1764e-15
552.5779e-15
722.3422e-15
622.6007e-15
551.2582e-15
919.6593e-15
606.8054e-15
818.9436e-15
821.7141e-15
787.0434e-15
871.9709e-15
521.5972e-15
863.3409e-15
934.6907e-15
77.8627e-15
96.8008e-15
62.6829e-15
71.7943e-15
24.8740e-15
77.4619e-15
54.8545e-15
.1311e-15
.8255e-15
6.1150e-15
3.7511e-15
19.2512e-15
18.5554e-15
8.3685e-15
15.5488e-15
2.7996e-15
8.9273e-15
18.1829e-15
8.4516e-15
15.3076e-15
6.1982e-15
19.2728e-15
9.6244e-15
.9452e-15
.3136e-15
.3587e-15
.8330e-15
.6799e-15
174.5081e-15
382.8823e-15
224.8239e-15
174.2886e-15
306.5220e-15
119.2568e-15
272.3676e-15
35.0447e-15
.2916e-15
.8289e-15
.9110e-15
.6460e-15
.4918e-15
.7306e-15
.4831e-15
.6787e-15
.1633e-15
.8532e-15
.6260e-15
7.5399e-15
5.0314e-15
7.9241e-15
8.0728e-15
2.5853e-15
15.4374e-15
50.3137e-15
509.6601e-15
573.9052e-15
935.1724e-15
624.1254e-15
907.9681e-15
644.0509e-15
574.3970e-15
522.0818e-15
825.4075e-15
55.3290e-15
61.6662e-15
56.0390e-15
79.1858e-15
53.5735e-15
89.8957e-15
87.8696e-15
45.0780e-15
67.6094e-15
96.2443e-15
61.9388e-15
44.3547e-15
67.1865e-15
24.0359e-15
48.5824e-15
.0360e-15
.9622e-15
.6911e-15
.5075e-15
.9048e-15
.8948e-15
.3207e-15
.1015e-15
.0784e-15
.8813e-15
.9923e-15
.9206e-15
.1706e-15
.4152e-15
528.9219e-15
546.1179e-15
968.7099e-15
837.2683e-15
925.0586e-15
81.6949e-15
97.0762e-15
37.1572e-15
49.8875e-15
86.4587e-15
47.6472e-15
71.9534e-15
99.2889e-15
63.9592e-15
50.6945e-15
47.4764e-15
28.9126e-15
.6392e-15
.2006e-15
.2989e-15
.9415e-15
.9514e-15
.1192e-15
.8433e-15
.1259e-15
.5061e-15
.3299e-15
.4277e-15
.0869e-15
92.8407e-15
95.0617e-15
29.3969e-15
20.4718e-15
44.1015e-15
64.9427e-15
38.1287e-15
83.6403e-15
82.1596e-15
81.1592e-15
79.9756e-15
11.1214e-15
16.9250e-15
10.4395e-15
16.2368e-15
18.0973e-15
16.6579e-15
11.1160e-15
.0571e-15
.6217e-15
.3512e-15
.9058e-15
.1812e-15
.9010e-15
.7473e-15
.3500e-15
.2758e-15
929.7457e-15
747.2554e-15
865.8759e-15
655.4756e-15
986.1875e-15
831.4070e-15
747.2529e-15
783.1816e-15
753.4412e-15
674.0524e-15
545.0044e-15
532.3538e-15
979.9125e-15
555.2132e-15
709.4402e-15
20.9619e-15
59.6004e-15
52.8952e-15
41.3986e-15
38.7574e-15
50.4575e-15
24.0537e-15
79.6335e-15
69.2651e-15
54.1803e-15
12.5048e-15
14.7377e-15
11.1641e-15
9.0634e-15
17.4586e-15
6.1095e-15
6.7644e-15
11.9990e-15
6.2196e-15
2.6607e-15
12.4524e-15
19.0887e-15
7.8723e-15
19.1651e-15
18.5236e-15
18.0444e-15
4.5016e-15
4.1008e-15
19.9308e-15
10.4383e-15
15.5062e-15
27.3065e-15
379.0364e-15
499.5957e-15
239.1900e-15
37.5424e-15
401.9516e-15
368.2595e-15
140.0424e-15
11.3992e-15
19.1180e-15
4.4389e-15
18.0231e-15
10.8592e-15
12.4798e-15
30.3249e-15
34.8624e-15
27.7386e-15
84.4321e-15
89.8559e-15
29.4618e-15
42.1855e-15
48.3124e-15
96.0157e-15
70.3166e-15
28.2159e-15
83.7478e-15
.0847e-15
.2356e-15
.8866e-15
.5691e-15
.5915e-15
.3355e-15
.7464e-15
210.1940e-15
156.6854e-15
301.5045e-15
104.9475e-15
298.6597e-15
165.0847e-15
426.7773e-15
347.1421e-15
269.1598e-15
3.1407e-15
15.2979e-15
18.9826e-15
5.1505e-15
1.8939e-15
1.3118e-15
18.4708e-15
7.8478e-15
3.8944e-15
11.6142e-15
4.2929e-15
19.7734e-15
18.9145e-15
1.1250e-15
12.1143e-15
16.2482e-15
19.1530e-15
4.4566e-15
3.8082e-15
6.5665e-15
18.7983e-15
6.4763e-15
4.0186e-15
18.5591e-15
1.5903e-15
549.1690e-15
703.2129e-15
661.9758e-15
983.7734e-15
570.9899e-15
678.7145e-15
735.3895e-15
623.9078e-15
946.5972e-15
672.5285e-15
940.5856e-15
666.7349e-15
978.9313e-15
878.0981e-15
898.6198e-15
916.7819e-15
369.3997e-15
390.5278e-15
312.9095e-15
153.9433e-15
382.3693e-15
104.9452e-15
66.1107e-15
312.2027e-15
496.7832e-15
428.6442e-15
89.0492e-15
469.7773e-15
208.5293e-15
123.2596e-15
371.9976e-15
89.7183e-15
478.8272e-15
454.8210e-15
73.6854e-15
907.4042e-15
859.5211e-15
899.9980e-15
572.4507e-15
737.2502e-15
695.8818e-15
947.6288e-15
852.0172e-15
845.4602e-15
735.5391e-15
971.3585e-15
663.4134e-15
501.4053e-15
.8823e-15
.9982e-15
11.4334e-15
7.1515e-15
2.2817e-15
5.6411e-15
10.1525e-15
4.4680e-15
11.2180e-15
18.5899e-15
.4316e-15
.9676e-15
.2423e-15
.5372e-15
.0586e-15
.3155e-15
.7865e-15
.8399e-15
.6509e-15
.5983e-15
.3767e-15
.8036e-15
.0646e-15
89.1907e-15
79.9611e-15
63.1861e-15
72.3181e-15
82.1038e-15
29.3226e-15
39.3823e-15
37.5259e-15
63.3967e-15
27.7129e-15
29.8023e-15
967.1586e-15
930.4909e-15
827.5388e-15
674.2039e-15
645.2677e-15
927.1449e-15
521.3193e-15
990.6512e-15
515.7437e-15
503.5541e-15
865.4402e-15
956.8268e-15
545.6811e-15
551.9838e-15
675.3847e-15
903.2283e-15
766.1391e-15
583.3516e-15
814.9756e-15
513.3809e-15
740.8919e-15
695.9777e-15
665.1258e-15
792.5868e-15
535.1783e-15
544.3343e-15
592.5878e-15
536.6760e-15
684.4524e-15
807.7961e-15
918.7042e-15
800.7554e-15
663.1325e-15
659.3901e-15
888.1572e-15
867.9597e-15
853.3522e-15
734.5458e-15
637.7191e-15
718.2006e-15
513.7100e-15
599.8449e-15
665.0017e-15
996.9172e-15
748.0188e-15
721.7714e-15
797.2070e-15
.9677e-15
.9482e-15
.8711e-15
.3204e-15
3.3435e-15
15.9080e-15
16.7113e-15
6.5344e-15
8.0290e-15
45.2436e-15
365.5586e-15
117.0251e-15
151.2191e-15
166.4517e-15
147.9847e-15
295.0639e-15
442.5796e-15
110.1701e-15
436.5779e-15
10.0429e-15
8.7679e-15
9.8478e-15
6.6253e-15
9.4870e-15
9.3135e-15
10.5292e-15
8.7658e-15
11.4059e-15
4.5219e-15
11.9764e-15
7.6986e-15
7.4044e-15
15.2728e-15
9.3475e-15
11.6770e-15
18.4594e-15
16.7083e-15
5.2041e-15
52.6231e-15
70.4532e-15
50.7192e-15
30.8345e-15
90.7998e-15
78.4526e-15
49.0128e-15
32.6756e-15
44.0013e-15
26.8512e-15
48.6221e-15
77.5253e-15
96.6648e-15
88.6607e-15
44.5704e-15
50.8560e-15
88.1497e-15
4.6965e-15
4.3969e-15
11.5241e-15
7.5875e-15
18.3179e-15
13.5129e-15
3.5435e-15
17.5369e-15
4.5023e-15
16.9146e-15
5.5211e-15
12.3884e-15
5.4535e-15
18.0958e-15
17.4949e-15
3.7905e-15
1.3094e-15
16.3755e-15
12.4688e-15
5.7484e-15
18.2052e-15
19.9603e-15
6.4748e-15
9.6859e-15
8.3355e-15
2.0071e-15
14.6359e-15
16.5085e-15
15.0173e-15
8.6855e-15
7.2283e-15
11.6655e-15
14.7518e-15
1.2404e-15
17.7442e-15
16.2127e-15
6.2875e-15
2.0540e-15
3.9539e-15
4.8749e-15
4.6824e-15
12.7091e-15
12.9686e-15
14.1083e-15
16.3665e-15
8.0510e-15
.1747e-15
.1147e-15
.6953e-15
6.2503e-15
14.9372e-15
19.1455e-15
7.5582e-15
5.8653e-15
1.3801e-15
1.0815e-15
17.3486e-15
17.9043e-15
4.7312e-15
1.9778e-15
13.1194e-15
27.9516e-15
65.2345e-15
65.8337e-15
693.5056e-15
750.8029e-15
910.8607e-15
553.9916e-15
963.7279e-15
681.7706e-15
645.6551e-15
663.8174e-15
657.7520e-15
975.9457e-15
959.2768e-15
812.5668e-15
711.9716e-15
952.9004e-15
818.1488e-15
720.9353e-15
552.5266e-15
539.1407e-15
787.8152e-15
575.9270e-15
70.2485e-15
97.8970e-15
60.2706e-15
59.9367e-15
29.3492e-15
34.8273e-15
40.7701e-15
22.8543e-15
98.9669e-15
83.6095e-15
402.4112e-15
220.9388e-15
307.9902e-15
99.9610e-15
68.7274e-15
.5465e-15
.6203e-15
.1712e-15
.1870e-15
.5994e-15
.6119e-15
.6694e-15
.4350e-15
.8743e-15
.3181e-15
.0967e-15
.1236e-15
.5244e-15
.1769e-15
.7646e-15
.7183e-15
.1341e-15
.5430e-15
.1409e-15
.8232e-15
.1580e-15
.1274e-15
.2779e-15
.6143e-15
320.8353e-15
285.1541e-15
371.8524e-15
361.3364e-15
377.7106e-15
408.3400e-15
189.1340e-15
275.8667e-15
246.8433e-15
107.2281e-15
90.3444e-15
176.2594e-15
272.9677e-15
130.4835e-15
183.1570e-15
140.5251e-15
272.0092e-15
455.7747e-15
187.0621e-15
366.3031e-15
312.3349e-15
71.0246e-15
214.6160e-15
452.1119e-15
20.6395e-15
59.0945e-15
91.5693e-15
71.4242e-15
61.5978e-15
42.1023e-15
29.0035e-15
53.6336e-15
90.7907e-15
84.6702e-15
41.2829e-15
56.1056e-15
45.7169e-15
52.1680e-15
7.8486e-15
14.4222e-15
14.8901e-15
.8899e-15
.9090e-15
.3297e-15
.4383e-15
.9113e-15
.0055e-15
.8187e-15
.1925e-15
.5123e-15
.4967e-15
.7366e-15
.5544e-15
.4661e-15
348.8837e-15
109.1616e-15
460.4566e-15
152.9478e-15
169.7717e-15
52.3710e-15
382.5801e-15
273.0123e-15
342.3101e-15
276.8210e-15
205.2621e-15
.5246e-15
.7062e-15
.4211e-15
.9994e-15
.3941e-15
.1536e-15
.6073e-15
.7967e-15
.4491e-15
.0469e-15
.7862e-15
.9758e-15
.1613e-15
.0333e-15
.9171e-15
.3836e-15
.2740e-15
.2041e-15
.3259e-15
.9019e-15
.9906e-15
6.3557e-15
17.9044e-15
13.1887e-15
4.1116e-15
16.3974e-15
5.3851e-15
3.3650e-15
10.1003e-15
7.4241e-15
18.0518e-15
9.9998e-15
13.2521e-15
12.5639e-15
11.5434e-15
12.4033e-15
12.0209e-15
15.1995e-15
4.2695e-15
8.4216e-15
12.4123e-15
9.5312e-15
4.9724e-15
17.9997e-15
12.5462e-15
4.1390e-15
16.2901e-15
10.7434e-15
6.2192e-15
6.5454e-15
19.3185e-15
4.4825e-15
5.4672e-15
7.7778e-15
15.1742e-15
11.8325e-15
6.1279e-15
4.9309e-15
9.5566e-15
5.7579e-15
10.4032e-15
4.7293e-15
16.3107e-15
18.1342e-15
11.4218e-15
8.0901e-15
3.9895e-15
10.3106e-15
15.8016e-15
13.6852e-15
13.4165e-15
9.6722e-15
9.2123e-15
2.5037e-15
9.2481e-15
18.2031e-15
92.2302e-15
22.7450e-15
60.7816e-15
83.8902e-15
87.6540e-15
37.9890e-15
94.3035e-15
62.2664e-15
34.9352e-15
80.9935e-15
98.8472e-15
55.3311e-15
87.7739e-15
88.1733e-15
.3535e-15
.0508e-15
.7359e-15
.5464e-15
.1603e-15
.6802e-15
.6859e-15
.6802e-15
.9276e-15
.4118e-15
.3931e-15
.8118e-15
10.7019e-15
1.2688e-15
7.6869e-15
4.0032e-15
1.5814e-15
17.8463e-15
16.1368e-15
11.1238e-15
16.4937e-15
996.1124e-15
817.1333e-15
641.8367e-15
668.3672e-15
898.6476e-15
692.3024e-15
615.0169e-15
573.5157e-15
604.3514e-15
558.6876e-15
.6009e-15
.8177e-15
.5117e-15
.3902e-15
.9705e-15
.8755e-15
.3058e-15
.1838e-15
.2001e-15
.7416e-15
.4439e-15
.8419e-15
.3689e-15
833.6342e-15
984.8239e-15
504.8399e-15
858.8350e-15
836.7659e-15
527.7287e-15
215.9608e-15
207.7528e-15
256.7273e-15
31.1508e-15
213.5357e-15
330.0166e-15
261.8555e-15
71.8882e-15
403.7247e-15
7.2124e-15
12.2821e-15
19.8350e-15
13.2563e-15
16.1535e-15
6.8645e-15
8.6226e-15
3.5823e-15
.8506e-15
.5470e-15
.9595e-15
.7955e-15
.3693e-15
.6270e-15
.2935e-15
.6162e-15
.9567e-15
.1999e-15
.7183e-15
.3904e-15
.8784e-15
.1837e-15
.1811e-15
.6471e-15
.9940e-15
.7030e-15
.1905e-15
34.3982e-15
34.8976e-15
37.2147e-15
85.4717e-15
46.8472e-15
74.3251e-15
63.7405e-15
78.8728e-15
98.3346e-15
58.0093e-15
22.7833e-15
61.3273e-15
97.6729e-15
73.3366e-15
93.7412e-15
52.6827e-15
48.5960e-15
86.3656e-15
98.4342e-15
98.9584e-15
24.7601e-15
14.4962e-15
4.8248e-15
16.9945e-15
11.6264e-15
18.3662e-15
10.1237e-15
6.0366e-15
12.1730e-15
12.2393e-15
6.8077e-15
18.8309e-15
16.4579e-15
3.4176e-15
9.4847e-15
12.7952e-15
11.0252e-15
16.7004e-15
13.1507e-15
86.8454e-15
46.6856e-15
68.1955e-15
42.1114e-15
64.6721e-15
86.6963e-15
73.2066e-15
27.3501e-15
92.3665e-15
45.3525e-15
36.5735e-15
88.0721e-15
85.3229e-15
55.6851e-15
27.4015e-15
22.8942e-15
80.1074e-15
95.6471e-15
63.4677e-15
62.8553e-15
49.4580e-15
43.1131e-15
86.2210e-15
46.4161e-15
37.2848e-15
50.8799e-15
95.7823e-15
34.4591e-15
53.6694e-15
41.6660e-15
45.9443e-15
45.2889e-15
.3740e-15
.7891e-15
.4902e-15
.1213e-15
.4168e-15
.2855e-15
114.9952e-15
89.7776e-15
233.9588e-15
355.2959e-15
12.2497e-15
413.3074e-15
484.7619e-15
396.0113e-15
456.4395e-15
422.9421e-15
382.1592e-15
496.4773e-15
27.8638e-15
178.5953e-15
412.9442e-15
48.8831e-15
33.8728e-15
443.7940e-15
369.0862e-15
477.1559e-15
165.1176e-15
7.0067e-15
19.8487e-15
15.4985e-15
2.6335e-15
7.2220e-15
10.5540e-15
8.1067e-15
9.5430e-15
8.1882e-15
2.8117e-15
16.7930e-15
16.9998e-15
9.9549e-15
18.1232e-15
14.3932e-15
2.0838e-15
5.0537e-15
12.7411e-15
15.2125e-15
11.5479e-15
3.1418e-15
16.7468e-15
7.3386e-15
18.1304e-15
1.3153e-15
9.3634e-15
17.9538e-15
4.8674e-15
11.4210e-15
3.2682e-15
7.6476e-15
11.4053e-15
11.3692e-15
14.9048e-15
11.7295e-15
9.3134e-15
10.4463e-15
15.7963e-15
15.5407e-15
5.3964e-15
.9804e-15
.8347e-15
.9878e-15
.5797e-15
.1002e-15
.9845e-15
.5138e-15
.8610e-15
.9220e-15
.2627e-15
.3066e-15
.6232e-15
.9174e-15
.0871e-15
.4499e-15
508.0723e-15
696.8469e-15
849.7282e-15
66.8308e-15
38.7193e-15
94.8348e-15
68.4030e-15
48.0488e-15
95.9158e-15
87.2711e-15
20.3442e-15
85.1504e-15
80.0477e-15
64.7798e-15
38.7516e-15
93.2905e-15
66.6413e-15
30.4456e-15
36.4559e-15
92.2336e-15
34.5819e-15
190.8590e-15
80.3297e-15
116.5408e-15
243.0340e-15
224.1612e-15
247.6543e-15
158.5423e-15
394.7287e-15
319.5416e-15
271.5688e-15
277.0910e-15
495.4243e-15
92.4861e-15
362.8963e-15
45.9250e-15
594.3979e-15
729.7025e-15
647.9113e-15
708.7760e-15
504.0027e-15
526.6553e-15
529.5231e-15
627.1413e-15
571.1511e-15
503.6870e-15
868.4793e-15
444.6296e-15
54.4711e-15
26.3199e-15
67.3144e-15
21.3035e-15
44.3009e-15
93.1331e-15
55.2588e-15
83.5096e-15
39.5038e-15
684.2540e-15
851.9227e-15
821.3070e-15
939.7925e-15
55.9423e-15
32.2713e-15
93.9802e-15
53.9736e-15
18.4906e-15
5.5736e-15
7.7089e-15
17.4362e-15
10.3246e-15
6.3839e-15
4.3926e-15
3.7878e-15
1.0032e-15
13.3993e-15
8.1747e-15
7.8988e-15
12.5585e-15
19.2569e-15
16.9569e-15
18.9086e-15
19.6527e-15
5.7391e-15
11.5523e-15
16.8833e-15
10.1403e-15
4.3365e-15
84.2001e-15
76.3304e-15
47.9189e-15
36.0419e-15
46.8016e-15
28.4262e-15
91.7925e-15
82.1202e-15
65.5884e-15
74.6232e-15
75.6081e-15
62.7654e-15
81.9606e-15
48.1771e-15
80.4143e-15
57.7567e-15
40.3652e-15
59.1403e-15
77.8065e-15
31.1698e-15
63.2962e-15
29.3622e-15
24.9271e-15
86.3777e-15
66.2944e-15
27.4890e-15
621.6578e-15
881.5621e-15
955.9203e-15
649.7747e-15
966.6068e-15
638.4572e-15
936.8089e-15
912.6683e-15
589.2847e-15
20.9508e-15
81.8023e-15
32.7148e-15
67.6805e-15
28.0030e-15
26.4141e-15
49.8614e-15
64.7186e-15
48.1671e-15
69.5000e-15
45.0972e-15
50.8234e-15
55.5972e-15
79.8820e-15
82.8498e-15
61.9655e-15
28.7441e-15
64.4291e-15
79.3436e-15
79.6621e-15
45.3556e-15
23.0569e-15
57.5997e-15
45.9775e-15
57.4764e-15
.0010e-15
.9436e-15
.0024e-15
.0158e-15
.0265e-15
.1810e-15
97.9231e-15
85.4377e-15
73.0146e-15
33.2218e-15
70.5620e-15
77.7564e-15
71.6384e-15
47.4067e-15
89.9873e-15
21.2557e-15
81.8673e-15
46.4482e-15
70.8951e-15
70.5341e-15
87.8896e-15
88.8122e-15
85.7157e-15
26.6742e-15
69.1279e-15
76.9484e-15
377.4125e-15
298.4794e-15
154.7556e-15
173.1793e-15
215.6930e-15
460.6700e-15
243.0335e-15
310.8780e-15
381.4086e-15
4.0087e-15
363.2487e-15
279.6491e-15
291.0099e-15
322.1187e-15
75.6504e-15
402.0711e-15
31.3575e-15
174.3459e-15
126.5232e-15
132.0701e-15
390.9721e-15
217.0093e-15
479.4367e-15
86.1698e-15
391.2849e-15
34.6499e-15
346.4958e-15
88.0414e-15
49.1381e-15
72.5949e-15
64.8656e-15
78.6793e-15
59.7153e-15
74.1373e-15
35.7368e-15
91.4359e-15
83.9002e-15
90.0098e-15
93.9406e-15
33.6050e-15
79.2014e-15
22.6232e-15
76.4779e-15
81.4647e-15
20.8617e-15
80.8728e-15
75.5837e-15
35.2773e-15
56.8584e-15
55.1382e-15
33.7275e-15
4.3938e-15
1.6895e-15
3.9173e-15
10.1706e-15
13.2866e-15
14.6426e-15
13.0310e-15
19.5675e-15
12.8330e-15
9.7058e-15
4.5842e-15
18.9543e-15
4.5054e-15
3.2465e-15
.6492e-15
.5539e-15
.3972e-15
.4069e-15
.2994e-15
.7859e-15
.2494e-15
.8147e-15
.8171e-15
500.0000e-15
696.9910e-15
990.6108e-15
531.2515e-15
949.1307e-15
998.9154e-15
676.5117e-15
768.9616e-15
7.5885e-15
8.4436e-15
86.6263e-15
32.8703e-15
76.5506e-15
43.8606e-15
38.7718e-15
60.3921e-15
93.3710e-15
781.8872e-15
896.6949e-15
805.6482e-15
590.3506e-15
923.1628e-15
926.1812e-15
838.3217e-15
826.4461e-15
348.5304e-15
224.6142e-15
129.8528e-15
435.6608e-15
361.4165e-15
244.3892e-15
314.0622e-15
134.9121e-15
6.7080e-15
236.3923e-15
320.6070e-15
202.9255e-15
394.8556e-15
374.6730e-15
8.4803e-15
11.6307e-15
19.5517e-15
17.7074e-15
15.4791e-15
.8550e-15
.2503e-15
.8446e-15
.0306e-15
.7860e-15
.6188e-15
.4986e-15
.7301e-15
.4234e-15
.9833e-15
.8010e-15
.0523e-15
.2890e-15
.2440e-15
.0099e-15
.5264e-15
.0454e-15
.9840e-15
.3629e-15
.7156e-15
.1815e-15
.1663e-15
.7718e-15
.8992e-15
.7011e-15
.8090e-15
.5063e-15
.7623e-15
.8111e-15
.6848e-15
.8802e-15
.0828e-15
.6073e-15
19.9827e-15
18.9107e-15
8.9124e-15
15.4683e-15
2.5896e-15
4.0957e-15
16.0381e-15
5.0344e-15
2.5302e-15
3.2523e-15
8.3705e-15
17.1330e-15
70.4889e-15
34.6452e-15
38.3592e-15
36.0912e-15
65.0650e-15
37.0790e-15
89.6154e-15
29.9944e-15
66.3273e-15
39.0150e-15
26.5440e-15
)
;

boundaryField
{
    x0
    {
        type            zeroGradient;
    }
    x1
    {
        type            zeroGradient;
    }
    y0
    {
        type            zeroGradient;
    }
    y1
    {
        type            zeroGradient;
    }
    z0
    {
        type            empty;
    }
    z1
    {
        type            empty;
    }
}


// ************************************************************************* //
