/*--------------------------------*- C++ -*----------------------------------*\
| =========                 |                                                 |
| \\      /  F ield         | OpenFOAM: The Open Source CFD Toolbox           |
|  \\    /   O peration     | Version:  5.0                                 |
|   \\  /    A nd           | Web:      www.OpenFOAM.org                      |
|    \\/     M anipulation  |                                                 |
\*---------------------------------------------------------------------------*/
FoamFile
{
    version     2.0;
    format      ascii;
    class       dictionary;
    location    "constant";
    object      transportProperties;
}
// * * * * * * * * * * * * * * * * * * * * * * * * * * * * * * * * * * * * * //

phase.a
{
    mu              mu [ 1 -1 -1 0 0 0 0 ] 1e-3;
    rho             rho [ 1 -3 0 0 0 0 0 ] 1000;
}

wellboreProperties
{
    qInjection	qInjection [0 3 -1 0 0 0 0]	0;//1e-3;
    qExtraction	qExtraction [0 3 -1 0 0 0 0]	0;//0.5e-3;
}

// ************************************************************************* //
