/*--------------------------------*- C++ -*----------------------------------*\
  =========                |
  \      /  F ield         | OpenFOAM: The Open Source CFD Toolbox
   \    /   O peration     | Website:  https://openfoam.org
    \  /    A nd           | Version:  7
     \/     M anipulation  |
\*---------------------------------------------------------------------------*/
FoamFile
{
    version     2.0;
    format      ascii;
    class       dictionary;
    location    "system";
    object      fvSchemes;
}
// * * * * * * * * * * * * * * * * * * * * * * * * * * * * * * * * * * * * * //

ddtSchemes
{
    default         none;
    //- transport time schemes
    ddt(C)    backward;
    ddt(theta,C) backward;
    ddt(thetaMatrix,CMatrix) backward;
    //- flow time schemes
    ddt(h) Euler;
    ddt(hMatrix) Euler;
    ddt(theta)      Euler;
}

gradSchemes
{
    default         Gauss linear;
}

divSchemes
{
    default         Gauss linear;
    div(phi,C)      Gauss vanLeer phi;
}

laplacianSchemes
{
    default         	Gauss linear corrected;;
}

interpolationSchemes
{
    default		linear;
    K			harmonic;
    pc   		linear;
    krtheta         	linear;
    krthetaMatrix       linear;
}

snGradSchemes
{
    default         corrected;
}

fluxRequired
{
    default         no;
    p           ;
}


// ************************************************************************* //
