/*--------------------------------*- C++ -*----------------------------------*\
  =========                |
  \      /  F ield         | OpenFOAM: The Open Source CFD Toolbox
   \    /   O peration     | Website:  https://openfoam.org
    \  /    A nd           | Version:  7
     \/     M anipulation  |
  \*---------------------------------------------------------------------------*/
FoamFile
{
  version     2.0;
  format      ascii;
  class       dictionary;
  location    "constant";
  object      transportProperties;
}
// * * * * * * * * * * * * * * * * * * * * * * * * * * * * * * * * * * * * * //

eps [0 0 0 0 0 0 0] 0.5;
Dm [0 2 -1 0 0 0 0] 1e-9;

porousTransport
{
    Kd [-1 3 0 0 0 0 0] 1e-3;
    rs [1 -3 0 0 0 0 0] 1e3;
    epsTotal [0 0 0 0 0 0 0] 0.30;
    lambda [0 0 -1 0 0 0 0 ] 0;
}

dispersionModel alphaDispersion;

alphaDispersionCoeffs
{
    tau [0 0 0 0 0 0 0] 2;
    alphaL [0 1 0 0 0 0 0] 0.001;
    alphaT [0 1 0 0 0 0 0] 0.002;
}

sourceEventFileTracer injection.evt;

// ************************************************************************* //
