/*--------------------------------*- C++ -*----------------------------------*\
  =========                |
  \      /  F ield         | OpenFOAM: The Open Source CFD Toolbox
   \    /   O peration     | Website:  https://openfoam.org
    \  /    A nd           | Version:  7
     \/     M anipulation  |
  \*---------------------------------------------------------------------------*/
FoamFile
{
  version     2.0;
  format      ascii;
  class       dictionary;
  location    "constant";
  object      transportProperties;
}
// * * * * * * * * * * * * * * * * * * * * * * * * * * * * * * * * * * * * * //

Ss Ss [0 -1 0 0 0 0 0] 0;

phase.theta
{
  rho	rho [1 -3 0 0 0 0 0] 	1e3;
  mu	mu [1 -1 -1 0 0 0 0]	1e-3;
}

porousMediumModel dualPorosity;

epsFracture [0 0 0 0 0 0 0] 0.50;
Kmatrix [0 2 0 0 0 0 0] 1.1798e-14;
epsMatrix [0 0 0 0 0 0 0] 0.50;


dualPorosityCoeffs
{
    a [0 1 0 0 0 0 0] 0.01;
    beta [0 0 0 0 0 0 0] 3;
    gammaW [0 0 0 0 0 0 0] 0.4;
    Kexchange [0 2 0 0 0 0 0] 1.17982e-16; // 0.01 cm/day   
}

relativePermeabilityModel  VanGenuchten;

capillarityModel	VanGenuchten;

VanGenuchtenCoeffs
{
    //- fracture properties
    thetaFracturemin 0;
    thetaFracturemax 0.025;
    alphaFracture 5.0; 
    mFracture 0.5;
    //- matrix properties
    thetaMatrixmin 0.10;
    thetaMatrixmax 0.475;
    alphaMatrix 0.5;
    mMatrix 0.333333;
}

//- tracer transport properties
Dm Dm [0 2 -1 0 0 0 0] 5.8e-10;

porousTransport
{
    phaseName theta;
    Kd [-1 3 0 0 0 0 0] 1e-3;
    rs [1 -3 0 0 0 0 0] 0;
    epsTotal [0 0 0 0 0 0 0] 0.50;
    lambda [0 0 -1 0 0 0 0 ] 0;//1.1574e-6;
}
dispersionModel alphaDispersion;

alphaDispersionCoeffs
{
    tau [0 0 0 0 0 0 0] 2;
    alphaL [0 1 0 0 0 0 0] 0.02;
    alphaT [0 1 0 0 0 0 0] 0.02;
}


// ************************************************************************* //
