/*--------------------------------*- C++ -*----------------------------------*\
  =========                |
  \      /  F ield         | OpenFOAM: The Open Source CFD Toolbox
   \    /   O peration     | Website:  https://openfoam.org
    \  /    A nd           | Version:  7
     \/     M anipulation  |
\*---------------------------------------------------------------------------*/
FoamFile
{
    version     2.0;
    format      ascii;
    class       dictionary;
    location    "system";
    object      fvSchemes;
}
// * * * * * * * * * * * * * * * * * * * * * * * * * * * * * * * * * * * * * //

ddtSchemes
{
    default steadyState;
}

gradSchemes
{
    default none;
    grad(p) Gauss linear;
}

divSchemes
{
    default none;
}

laplacianSchemes
{
    default none;
    laplacian(-Mf,p) Gauss linear corrected;
}

interpolationSchemes
{
    default none;
    K       harmonic;
    flux(U) linear;
}

snGradSchemes
{
    default corrected;
}

fluxRequired
{
    default no;
    p;
}

// ************************************************************************* //
