
/*--------------------------------*- C++ -*----------------------------------*\
| =========                 |                                                 |
| \\      /  F ield         | OpenFOAM: The Open Source CFD Toolbox           |
|  \\    /   O peration     | Version:  5.0                                   |
|   \\  /    A nd           | Web:      www.OpenFOAM.org                      |
|    \\/     M anipulation  |                                                 |
\*---------------------------------------------------------------------------*/
FoamFile
{
    version     2.0;
    format      ascii;
    class       dictionary;
    location    "system";
    object      setFieldsDict;
}
// * * * * * * * * * * * * * * * * * * * * * * * * * * * * * * * * * * * * * //

defaultFieldValues
(
	volScalarFieldValue Sb 0.002
	volScalarFieldValue Winj 0
	volScalarFieldValue Wext 0
	volScalarFieldValue eps 0.75
);



regions
(
   // extraction
   boxToCell
   {
     box (0 0 0) (5 10 1);
     fieldValues
        (
           volScalarFieldValue eps 0.25 
        );
   }  
);



