/*--------------------------------*- C++ -*----------------------------------*\
| =========                 |                                                 |
| \\      /  F ield         | OpenFOAM: The Open Source CFD Toolbox           |
|  \\    /   O peration     | Version:  4.1                                   |
|   \\  /    A nd           | Web:      www.OpenFOAM.org                      |
|    \\/     M anipulation  |                                                 |
\*---------------------------------------------------------------------------*/
FoamFile
{
    version     2.0;
    format      ascii;
    class       volScalarField;
    location    "0";
    object      alphaL;
}
// * * * * * * * * * * * * * * * * * * * * * * * * * * * * * * * * * * * * * //

dimensions     [0 1 0 0 0 0 0];

internalField   uniform 0.02;

boundaryField
{
    x0
    {
        type            zeroGradient;
    }
    
    x1
    {
        type            zeroGradient;
    }
    
    ydirection
    {
        type            zeroGradient;
    }
    
    frontAndBack
    {
        type            empty;
    }
}


// ************************************************************************* //
