/*--------------------------------*- C++ -*----------------------------------*\
  =========                |
  \      /  F ield         | OpenFOAM: The Open Source CFD Toolbox
   \    /   O peration     | Website:  https://openfoam.org
    \  /    A nd           | Version:  7
     \/     M anipulation  |
\*---------------------------------------------------------------------------*/
FoamFile
{
    version     2.0;
    format      ascii;
    class       volScalarField;
    location    "0";
    object      p;
}
// * * * * * * * * * * * * * * * * * * * * * * * * * * * * * * * * * * * * * //

dimensions      [1 -1 -2 0 0 0 0];

internalField   uniform 0;

boundaryField
{

    x0
    {
        type            darcyGradPressure;
        value           uniform 0;
    }

    x1
    {
        type            fixedValue;
        value           uniform 0;
    }

    ydirection
    {
        type            darcyGradPressure;
        value           uniform 0;
    }

    zdirection
    {
        type            empty;
    }
}

// ************************************************************************* //
