/*--------------------------------*- C++ -*----------------------------------*\
| =========                 |                                                 |
| \\      /  F ield         | OpenFOAM: The Open Source CFD Toolbox           |
|  \\    /   O peration     | Version:  5.0                                   |
|   \\  /    A nd           | Web:      www.OpenFOAM.org                      |
|    \\/     M anipulation  |                                                 |
\*---------------------------------------------------------------------------*/
FoamFile
{
    version     2.0;
    format      ascii;
    class       volVectorField;
    location    "0";
    object      Ua;
}
// * * * * * * * * * * * * * * * * * * * * * * * * * * * * * * * * * * * * * //

dimensions      [0 1 -1 0 0 0 0];

internalField   uniform (0 0 0);

boundaryField
{
    x0
    {
        type            fixedValue;
        value           uniform (0.001 0.0001 0);
    }
    x1
    {
        type            zeroGradient;
    }
    ydirection
    {
        type            fixedValue;
        value           uniform (0.001 0.0001 0);
    }
    zdirection
    {
        type            empty;
    }
}


// ************************************************************************* //
